&share
 wrf_core = 'ARW',
 max_dom = 1,
 start_date = '2003-05-10_12:00:00',
 end_date   = '2003-05-11_12:00:00',
 interval_seconds = 21600
/

&geogrid
 parent_id         =   1
 parent_grid_ratio =   1
 i_parent_start    =   1
 j_parent_start    =   1
 e_we              =  1200
 e_sn              =  1050
 geog_data_res = 'default'
 dx = 3000,
 dy = 3000,
 map_proj = 'lambert'
 ref_lat   =  39.00
 ref_lon   =  -89.00	 
 truelat1  =  30.0
 truelat2  =  60.0
 stand_lon =  -89.00
 geog_data_path = '/data/jtrapp/c/songning/WPS_GEOG/'
 opt_geogrid_tbl_path = '/data/keeling/a/songning/WRF/WPS/geogrid/'
/

&ungrib
 out_format = 'WPS',
! prefix     = '/data/keeling/a/songning/c/WRF_results/LG_DM_TEST2_0.25deg/ERA5/historical/20030510_12_-88.29_36.36/UP_FILE'
 prefix     = '/data/keeling/a/songning/c/WRF_results/LG_DM_TEST2_0.25deg/ERA5/historical/20030510_12_-88.29_36.36/SFC_FILE'
/

&metgrid
 fg_name = '/data/keeling/a/songning/c/WRF_results/LG_DM_TEST2_0.25deg/ERA5/historical/20030510_12_-88.29_36.36/UP_FILE', '/data/keeling/a/songning/c/WRF_results/LG_DM_TEST2_0.25deg/ERA5/historical/20030510_12_-88.29_36.36/SFC_FILE', '/data/keeling/a/songning/c/WRF_results/LG_DM_TEST2_0.25deg/ERA5/historical/20030510_12_-88.29_36.36/PRES'
 !constants_name = 'ERA5_INVARIANT'
 opt_output_from_metgrid_path = '/data/keeling/a/songning/c/WRF_results/LG_DM_TEST2_0.25deg/ERA5/historical/20030510_12_-88.29_36.36'
 opt_metgrid_tbl_path         = '/data/keeling/a/songning/WRF/WPS/metgrid/',
 io_form_metgrid = 2, 
/

